*Heading
** Job name: Job_PE_EE_cooling Model name: Structural_cooling
** Generated by: Abaqus/CAE 2021
*Preprint, echo=NO, model=NO, history=NO, contact=NO
**
** PARTS
**
*Part, name=Part
*Node
      1,           0.,           0., 9.99999975e-05
      2,           0., 0.00499999989, 9.99999975e-05
      3,           0., 0.00499999989,           0.
      4,           0.,           0.,           0.
      5, 0.00499999989, 0.00499999989, 9.99999975e-05
      6, 0.00499999989, 0.00499999989,           0.
      7, 0.00499999989,           0.,           0.
      8, 0.00499999989,           0., 9.99999975e-05
      9, -0.00200000009, 0.00700000022,           0.
     10, -0.00200000009, -0.00200000009,           0.
     11, 0.00700000022, -0.00200000009,           0.
     12, 0.00700000022, 0.00700000022,           0.
     13, 0.00700000022, -0.00200000009, -0.000199999995
     14, -0.00200000009, -0.00200000009, -0.000199999995
     15, -0.00200000009, 0.00700000022, -0.000199999995
     16, 0.00700000022, 0.00700000022, -0.000199999995
     17,           0., 9.99999975e-05, 9.99999975e-05
     18,           0., 0.000199999995, 9.99999975e-05
     19,           0., 0.000300000014, 9.99999975e-05
     20,           0., 0.00039999999, 9.99999975e-05
** ... 10905 like lines cut
*Element, type=C3D8R
   1,  310,  561, 2962,  213,    1,   17,  114,    4
   2,  561,  562, 2963, 2962,   17,   18,  113,  114
   3,  562,  563, 2964, 2963,   18,   19,  112,  113
   4,  563,  564, 2965, 2964,   19,   20,  111,  112
   5,  564,  565, 2966, 2965,   20,   21,  110,  111
   6,  565,  566, 2967, 2966,   21,   22,  109,  110
   7,  566,  567, 2968, 2967,   22,   23,  108,  109
   8,  567,  568, 2969, 2968,   23,   24,  107,  108
   9,  568,  569, 2970, 2969,   24,   25,  106,  107
  10,  569,  570, 2971, 2970,   25,   26,  105,  106
  11,  570,  571, 2972, 2971,   26,   27,  104,  105
  12,  571,  572, 2973, 2972,   27,   28,  103,  104
  13,  572,  573, 2974, 2973,   28,   29,  102,  103
  14,  573,  574, 2975, 2974,   29,   30,  101,  102
  15,  574,  575, 2976, 2975,   30,   31,  100,  101
  16,  575,  576, 2977, 2976,   31,   32,   99,  100
  17,  576,  577, 2978, 2977,   32,   33,   98,   99
  18,  577,  578, 2979, 2978,   33,   34,   97,   98
  19,  578,  579, 2980, 2979,   34,   35,   96,   97
  20,  579,  580, 2981, 2980,   35,   36,   95,   96
** ... 6601 like lines cut
*Nset, nset=Set_deposition, generate
     1,  10925,      1
*Elset, elset=Set_deposition, generate
    1,  6621,     1
** Section: Section-1
*Solid Section, elset=Set_deposition, material=Ti-6Al-4V
,
*End Part
**  
**
** ASSEMBLY
**
*Assembly, name=Assembly
**  
*Instance, name=Part-1, part=Part
*End Instance
**  
*Nset, nset=Set-1, instance=Part-1
    1,    2,    3,    4,    5,    6,    7,    8,   17,   18,   19,   20,   21,   22,   23,   24
   25,   26,   27,   28,   29,   30,   31,   32,   33,   34,   35,   36,   37,   38,   39,   40
   41,   42,   43,   44,   45,   46,   47,   48,   49,   50,   51,   52,   53,   54,   55,   56
   57,   58,   59,   60,   61,   62,   63,   64,   65,   66,   67,   68,   69,   70,   71,   72
   73,   74,   75,   76,   77,   78,   79,   80,   81,   82,   83,   84,   85,   86,   87,   88
   89,   90,   91,   92,   93,   94,   95,   96,   97,   98,   99,  100,  101,  102,  103,  104
  105,  106,  107,  108,  109,  110,  111,  112,  113,  114,  115,  116,  117,  118,  119,  120
  121,  122,  123,  124,  125,  126,  127,  128,  129,  130,  131,  132,  133,  134,  135,  136
  137,  138,  139,  140,  141,  142,  143,  144,  145,  146,  147,  148,  149,  150,  151,  152
  153,  154,  155,  156,  157,  158,  159,  160,  161,  162,  163,  164,  165,  166,  167,  168
  169,  170,  171,  172,  173,  174,  175,  176,  177,  178,  179,  180,  181,  182,  183,  184
  185,  186,  187,  188,  189,  190,  191,  192,  193,  194,  195,  196,  197,  198,  199,  200
  201,  202,  203,  204,  205,  206,  207,  208,  209,  210,  211,  212,  213,  214,  215,  216
  217,  218,  219,  220,  221,  222,  223,  224,  225,  226,  227,  228,  229,  230,  231,  232
  233,  234,  235,  236,  237,  238,  239,  240,  241,  242,  243,  244,  245,  246,  247,  248
  249,  250,  251,  252,  253,  254,  255,  256,  257,  258,  259,  260,  261,  262,  263,  264
  265,  266,  267,  268,  269,  270,  271,  272,  273,  274,  275,  276,  277,  278,  279,  280
  281,  282,  283,  284,  285,  286,  287,  288,  289,  290,  291,  292,  293,  294,  295,  296
  297,  298,  299,  300,  301,  302,  303,  304,  305,  306,  307,  308,  309,  310,  311,  312
  313,  314,  315,  316,  317,  318,  319,  320,  321,  322,  323,  324,  325,  326,  327,  328
** ... 306 like lines cut
*Elset, elset=Set-1, instance=Part-1, generate
    1,  2500,     1
*Elset, elset=Set-2, instance=Part-1, generate
 3201,  6400,     1
*Elset, elset=_AM-Model-1__AllBuildParts__, internal, instance=Part-1, generate
    1,  6621,     1
*Nset, nset=_PickedSet12, internal, instance=Part-1
    13,    14,    15,    16,   485,   486,   487,   488,   489,   490,   491,   492,   493,   494,   495,   496
   497,   498,   499,   500,   501,   502,   503,   504,   505,   506,   507,   508,   509,   510,   511,   512
   513,   514,   515,   516,   517,   518,   519,   520,   521,   522,   523,   524,   525,   526,   527,   528
   529,   530,   531,   532,   533,   534,   535,   536,   537,   538,   539,   540,   541,   542,   543,   544
   545,   546,   547,   548,   549,   550,   551,   552,   553,   554,   555,   556,   557,   558,   559,   560
  6844,  6845,  6846,  6847,  6848,  6849,  6850,  6851,  6852,  6853,  6854,  6855,  6856,  6857,  6858,  6859
  6860,  6861,  6862,  6863,  6864,  6865,  6866,  6867,  6868,  6869,  6870,  6871,  6872,  6873,  6874,  6875
  6876,  6877,  6878,  6879,  6880,  6881,  6882,  6883,  6884,  6885,  6886,  6887,  6888,  6889,  6890,  6891
  6892,  6893,  6894,  6895,  6896,  6897,  6898,  6899,  6900,  6901,  6902,  6903,  6904,  6905,  6906,  6907
  6908,  6909,  6910,  6911,  6912,  6913,  6914,  6915,  6916,  6917,  6918,  6919,  6920,  6921,  6922,  6923
  6924,  6925,  6926,  6927,  6928,  6929,  6930,  6931,  6932,  6933,  6934,  6935,  6936,  6937,  6938,  6939
  6940,  6941,  6942,  6943,  6944,  6945,  6946,  6947,  6948,  6949,  6950,  6951,  6952,  6953,  6954,  6955
  6956,  6957,  6958,  6959,  6960,  6961,  6962,  6963,  6964,  6965,  6966,  6967,  6968,  6969,  6970,  6971
  6972,  6973,  6974,  6975,  6976,  6977,  6978,  6979,  6980,  6981,  6982,  6983,  6984,  6985,  6986,  6987
  6988,  6989,  6990,  6991,  6992,  6993,  6994,  6995,  6996,  6997,  6998,  6999,  7000,  7001,  7002,  7003
  7004,  7005,  7006,  7007,  7008,  7009,  7010,  7011,  7012,  7013,  7014,  7015,  7016,  7017,  7018,  7019
  7020,  7021,  7022,  7023,  7024,  7025,  7026,  7027,  7028,  7029,  7030,  7031,  7032,  7033,  7034,  7035
  7036,  7037,  7038,  7039,  7040,  7041,  7042,  7043,  7044,  7045,  7046,  7047,  7048,  7049,  7050,  7051
  7052,  7053,  7054,  7055,  7056,  7057,  7058,  7059,  7060,  7061,  7062,  7063,  7064,  7065,  7066,  7067
  7068,  7069,  7070,  7071,  7072,  7073,  7074,  7075,  7076,  7077,  7078,  7079,  7080,  7081,  7082,  7083
** ... 241 like lines cut
*Elset, elset=_PickedSet12, internal, instance=Part-1, generate
 2501,  6621,     1
*Elset, elset=_Surf-all_S3, internal, instance=Part-1, generate
    1,  2500,     1
*Surface, type=ELEMENT, name=Surf-all
_Surf-all_S3, S3
*End Assembly
** 
** MATERIALS
** 
*Material, name=Ti-6Al-4V
*Conductivity
    7., 298.
 10.15, 573.
  15.5, 973.
   21.,1268.
  23.7,1573.
  30.9,1923.
  34.6,1973.
*Density
  4420., 298.
  4381., 573.
  4324., 973.
  4282.,1268.
  4240.,1573.
 4054.5,1923.
  3886.,1973.
*Elastic
 1.048e+11, 0.31
*Expansion
 2.86e-06, 298.
 3.76e-06, 572.
 5.06e-06, 977.
 6.83e-06,1268.
 7.76e-06,1577.
 8.57e-06,1925.
 8.99e-06,1972.
*Plastic
  1.05e+09,   0.
  1.05e+09, 0.01
 1.145e+09, 0.02
  1.16e+09, 0.03
 1.165e+09, 0.04
*Specific Heat
546., 298.
606., 573.
694., 973.
697.,1268.
696.,1573.
795.,1923.
840.,1973.
** 
** PHYSICAL CONSTANTS
** 
*Physical Constants, absolute zero=0., stefan boltzmann=5.67e-08
** 
** BOUNDARY CONDITIONS
** 
** Name: BC-1 Type: Symmetry/Antisymmetry/Encastre
*Boundary
_PickedSet12, ENCASTRE
** ----------------------------------------------------------------
** 
** STEP: Step_structural
** 
*Step, name=Step_structural, nlgeom=YES, inc=3110
*Static, direct
1., 100., 
** 
** PREDEFINED FIELDS
** 
** Name: Predefined Field-1   Type: Temperature
*Temperature, file=I:\SLM\Job_TEMP_cooling.odb, bstep=1, binc=1, estep=1, einc=100
** 
** OUTPUT REQUESTS
** 
*Restart, write, frequency=0
** 
** FIELD OUTPUT: F-Output-1
** 
*Output, field
*Element Output, directions=YES
EE, PE, PEEQ
** 
** HISTORY OUTPUT: H-Output-1
** 
*Output, history, variable=PRESELECT
*End Step
